
     RDKit          3D

  7  7  0  0  0  0  0  0  0  0999 V2000
   -2.3680   14.8970   -2.2280 N   0  0  0  0  0  0  0  0  0  0  0  0
   -3.0530   14.9340   -1.3180 C   0  0  0  0  0  0  0  0  0  0  0  0
   -3.8740   15.0050   -0.1420 C   0  0  0  0  0  0  0  0  0  0  0  0
   -3.3970   15.0690    1.0500 N   0  0  0  0  0  0  0  0  0  0  0  0
   -4.6030   15.1380    1.9070 C   0  0  0  0  0  0  0  0  0  0  0  0
   -5.7960   15.0680    1.0030 N   0  0  0  0  0  0  0  0  0  0  0  0
   -5.2750   15.0110   -0.1920 C   0  0  0  0  0  0  0  0  0  0  0  0
  1  2  3  0
  2  3  1  0
  3  4  1  0
  3  7  2  0
  4  5  2  0
  7  6  1  0
  5  6  1  0
M  END
