
     RDKit          3D

  6  5  0  0  0  0  0  0  0  0999 V2000
    2.9380   12.6980   -4.3730 C   0  0  0  0  0  0  0  0  0  0  0  0
    0.8040   12.3390   -5.4310 O   0  0  0  0  0  0  0  0  0  0  0  0
    1.4390   12.8410   -4.2650 C   0  0  1  0  0  0  0  0  0  0  0  0
    0.5120   10.9390   -3.1200 O   0  0  0  0  0  0  0  0  0  0  0  0
    0.9360   12.0820   -3.0550 C   0  0  0  0  0  0  0  0  0  0  0  0
    1.0300   12.7670   -1.9560 O   0  0  0  0  0  0  0  0  0  0  0  0
  3  1  1  6
  3  2  1  0
  3  5  1  0
  5  4  2  0
  5  6  1  0
M  END
