mac-x0361
     RDKit          3D

 10 10  0  0  0  0  0  0  0  0999 V2000
   -6.2460   15.0120    1.6960 N   0  0  0  0  0  0  0  0  0  0  0  0
   -6.5280   14.8730    0.2930 C   0  0  0  0  0  0  0  0  0  0  0  0
   -7.6350   14.6700   -0.0340 O   0  0  0  0  0  0  0  0  0  0  0  0
   -5.3910   14.9700   -0.7360 C   0  0  0  0  0  0  0  0  0  0  0  0
   -5.6110   15.2240   -2.0690 C   0  0  0  0  0  0  0  0  0  0  0  0
   -4.5290   15.2560   -2.9590 C   0  0  0  0  0  0  0  0  0  0  0  0
   -3.2410   15.0690   -2.4850 C   0  0  0  0  0  0  0  0  0  0  0  0
   -2.1500   15.1280   -3.3620 O   0  0  0  0  0  0  0  0  0  0  0  0
   -3.0220   14.8050   -1.1420 C   0  0  0  0  0  0  0  0  0  0  0  0
   -4.1020   14.7610   -0.2970 C   0  0  0  0  0  0  0  0  0  0  0  0
  1  2  1  0
  2  3  2  0
  2  4  1  0
  4  5  2  0
  5  6  1  0
  6  7  2  0
  7  8  1  0
  7  9  1  0
  4 10  1  0
  9 10  2  0
M  END
