mac-x0437
     RDKit          3D

 14 15  0  0  0  0  0  0  0  0999 V2000
    1.3020   12.7520   -2.1640 O   0  0  0  0  0  0  0  0  0  0  0  0
    1.2890   12.0610   -3.2170 C   0  0  0  0  0  0  0  0  0  0  0  0
    1.0580   10.8280   -3.1450 O   0  0  0  0  0  0  0  0  0  0  0  0
    1.5590   12.7380   -4.5760 C   0  0  0  0  0  0  0  0  0  0  0  0
    0.3260   13.1760   -5.3840 C   0  0  0  0  0  0  0  0  0  0  0  0
   -0.5310   12.0290   -5.6190 N   0  0  0  0  0  0  0  0  0  0  0  0
   -1.6110   11.7410   -4.9430 C   0  0  0  0  0  0  0  0  0  0  0  0
   -2.1370   10.6180   -5.3850 N   0  0  0  0  0  0  0  0  0  0  0  0
   -1.3760   10.1580   -6.3580 C   0  0  0  0  0  0  0  0  0  0  0  0
   -1.4830    9.0120   -7.1580 C   0  0  0  0  0  0  0  0  0  0  0  0
   -0.5390    8.7970   -8.1320 C   0  0  0  0  0  0  0  0  0  0  0  0
    0.5090    9.6970   -8.3060 C   0  0  0  0  0  0  0  0  0  0  0  0
    0.6160   10.8160   -7.5020 C   0  0  0  0  0  0  0  0  0  0  0  0
   -0.3400   11.0490   -6.5190 C   0  0  0  0  0  0  0  0  0  0  0  0
  1  2  1  0
  2  3  2  0
  2  4  1  0
  4  5  1  0
  5  6  1  0
  6  7  1  0
  7  8  2  0
  8  9  1  0
  9 10  1  0
 10 11  2  0
 11 12  1  0
 12 13  2  0
  6 14  1  0
  9 14  2  0
 13 14  1  0
M  END
