mac-x0439
     RDKit          3D

 13 14  0  0  0  0  0  0  0  0999 V2000
   -3.1440   15.7880   -5.4190 Cl  0  0  0  0  0  0  0  0  0  0  0  0
    2.9830   14.2390   -2.6910 O   0  0  0  0  0  0  0  0  0  0  0  0
    1.7600   14.1390   -2.7060 C   0  0  0  0  0  0  0  0  0  0  0  0
    1.1600   13.2870   -2.0390 O   0  0  0  0  0  0  0  0  0  0  0  0
    0.9900   15.1390   -3.5380 C   0  0  0  0  0  0  0  0  0  0  0  0
   -0.3350   15.0600   -3.9510 C   0  0  0  0  0  0  0  0  0  0  0  0
   -0.5630   16.2220   -4.6840 C   0  0  0  0  0  0  0  0  0  0  0  0
   -1.6590   16.7310   -5.3510 C   0  0  0  0  0  0  0  0  0  0  0  0
   -1.6080   17.9390   -5.9950 C   0  0  0  0  0  0  0  0  0  0  0  0
   -0.4720   18.6760   -5.9360 C   0  0  0  0  0  0  0  0  0  0  0  0
    0.6640   18.1770   -5.3100 C   0  0  0  0  0  0  0  0  0  0  0  0
    0.6010   16.9280   -4.6660 C   0  0  0  0  0  0  0  0  0  0  0  0
    1.5230   16.2360   -3.9550 N   0  0  0  0  0  0  0  0  0  0  0  0
  2  3  1  0
  3  4  2  0
  3  5  1  0
  5  6  2  0
  6  7  1  0
  1  8  1  0
  7  8  2  0
  8  9  1  0
  9 10  2  0
 10 11  1  0
  7 12  1  0
 11 12  2  0
  5 13  1  0
 12 13  1  0
M  END
