mac-x0402
     RDKit          3D

 11 12  0  0  0  0  0  0  0  0999 V2000
   -1.9300   14.7630   -3.3910 Cl  0  0  0  0  0  0  0  0  0  0  0  0
   -6.5330   15.0760    3.1720 N   0  0  0  0  0  0  0  0  0  0  0  0
   -5.7120   15.0350    1.9840 C   0  0  0  0  0  0  0  0  0  0  0  0
   -6.2200   15.2230    0.7390 N   0  0  0  0  0  0  0  0  0  0  0  0
   -5.1850   15.1190   -0.2380 C   0  0  0  0  0  0  0  0  0  0  0  0
   -5.4810   15.2850   -1.5960 C   0  0  0  0  0  0  0  0  0  0  0  0
   -4.4610   15.1570   -2.4990 C   0  0  0  0  0  0  0  0  0  0  0  0
   -3.1650   14.8840   -2.0940 C   0  0  0  0  0  0  0  0  0  0  0  0
   -2.8630   14.7340   -0.7430 C   0  0  0  0  0  0  0  0  0  0  0  0
   -3.9040   14.8440    0.1960 C   0  0  0  0  0  0  0  0  0  0  0  0
   -4.0650   14.7220    1.8570 S   0  0  0  0  0  0  0  0  0  0  0  0
  2  3  1  0
  3  4  2  0
  4  5  1  0
  5  6  2  0
  6  7  1  0
  1  8  1  0
  7  8  2  0
  8  9  1  0
  5 10  1  0
  9 10  2  0
  3 11  1  0
 10 11  1  0
M  END
