mac-x0283
     RDKit          3D

 10 11  0  0  0  0  0  0  0  0999 V2000
   -6.6870   14.8580    2.6100 N   0  0  0  0  0  0  0  0  0  0  0  0
   -6.6340   14.9190    1.1760 C   0  0  0  0  0  0  0  0  0  0  0  0
   -7.6220   14.8740    0.2790 N   0  0  0  0  0  0  0  0  0  0  0  0
   -7.1300   14.9800   -0.9450 O   0  0  0  0  0  0  0  0  0  0  0  0
   -5.8080   15.0630   -0.8970 C   0  0  0  0  0  0  0  0  0  0  0  0
   -4.8400   15.1600   -1.9120 C   0  0  0  0  0  0  0  0  0  0  0  0
   -3.5170   15.2180   -1.5460 C   0  0  0  0  0  0  0  0  0  0  0  0
   -3.1280   15.1860   -0.1990 C   0  0  0  0  0  0  0  0  0  0  0  0
   -4.0830   15.0890    0.8050 C   0  0  0  0  0  0  0  0  0  0  0  0
   -5.4280   15.0280    0.4260 C   0  0  0  0  0  0  0  0  0  0  0  0
  1  2  1  0
  2  3  2  0
  3  4  1  0
  4  5  1  0
  5  6  1  0
  6  7  2  0
  7  8  1  0
  8  9  2  0
  2 10  1  0
  5 10  2  0
  9 10  1  0
M  END
