mac-x0321
     RDKit          3D

 10 10  0  0  0  0  0  0  0  0999 V2000
   -4.4710   15.1440    1.8550 Cl  0  0  0  0  0  0  0  0  0  0  0  0
   -0.8590   14.5500   -1.9300 O   0  0  0  0  0  0  0  0  0  0  0  0
   -1.8960   14.6240   -2.6440 C   0  0  0  0  0  0  0  0  0  0  0  0
   -1.8760   14.4820   -3.8990 O   0  0  0  0  0  0  0  0  0  0  0  0
   -3.2120   14.9290   -1.9510 C   0  0  0  0  0  0  0  0  0  0  0  0
   -4.3370   15.2230   -2.6860 C   0  0  0  0  0  0  0  0  0  0  0  0
   -5.5260   15.5230   -2.0460 C   0  0  0  0  0  0  0  0  0  0  0  0
   -5.5910   15.5050   -0.6660 C   0  0  0  0  0  0  0  0  0  0  0  0
   -4.4600   15.1860    0.0590 C   0  0  0  0  0  0  0  0  0  0  0  0
   -3.2760   14.9200   -0.5830 C   0  0  0  0  0  0  0  0  0  0  0  0
  2  3  1  0
  3  4  2  0
  3  5  1  0
  5  6  2  0
  6  7  1  0
  7  8  2  0
  1  9  1  0
  8  9  1  0
  5 10  1  0
  9 10  2  0
M  END
