mac-x0385
     RDKit          3D

  9  9  0  0  0  0  0  0  0  0999 V2000
   -5.0170   15.3740   -0.7490 C   0  0  0  0  0  0  0  0  0  0  0  0
   -3.5180   15.2550   -0.4350 C   0  0  0  0  0  0  0  0  0  0  0  0
   -2.5300   15.1490   -1.3840 C   0  0  0  0  0  0  0  0  0  0  0  0
   -1.2730   15.0430   -0.9650 N   0  0  0  0  0  0  0  0  0  0  0  0
   -0.9840   15.0400    0.3220 C   0  0  0  0  0  0  0  0  0  0  0  0
    0.4550   14.9460    0.7960 C   0  0  0  0  0  0  0  0  0  0  0  0
   -1.9040   15.1260    1.2410 N   0  0  0  0  0  0  0  0  0  0  0  0
   -3.1580   15.2420    0.9020 C   0  0  0  0  0  0  0  0  0  0  0  0
   -4.1720   15.3510    1.9090 N   0  0  0  0  0  0  0  0  0  0  0  0
  1  2  1  0
  2  3  2  0
  3  4  1  0
  4  5  2  0
  5  6  1  0
  5  7  1  0
  2  8  1  0
  7  8  2  0
  8  9  1  0
M  END
