mac-x0482
     RDKit          3D

 13 14  0  0  0  0  0  0  0  0999 V2000
   -5.9190   40.7140  -10.6220 C   0  0  0  0  0  0  0  0  0  0  0  0
   -6.1150   41.2810   -9.3670 C   0  0  0  0  0  0  0  0  0  0  0  0
   -5.1420   42.0960   -8.8970 C   0  0  0  0  0  0  0  0  0  0  0  0
   -4.0100   42.3110   -9.6030 C   0  0  0  0  0  0  0  0  0  0  0  0
   -2.9230   43.1720   -9.0370 N   0  0  0  0  0  0  0  0  0  0  0  0
   -3.1190   43.7160   -7.7640 C   0  0  0  0  0  0  0  0  0  0  0  0
   -3.7900   45.0810   -7.8160 C   0  0  0  0  0  0  0  0  0  0  0  0
   -2.9410   46.2250   -8.4230 C   0  0  0  0  0  0  0  0  0  0  0  0
   -2.2070   46.0280   -9.6470 N   0  0  0  0  0  0  0  0  0  0  0  0
   -2.2040   44.8790  -10.4750 C   0  0  0  0  0  0  0  0  0  0  0  0
   -1.8500   43.5580   -9.9300 C   0  0  0  0  0  0  0  0  0  0  0  0
   -3.8460   41.7250  -10.7770 N   0  0  0  0  0  0  0  0  0  0  0  0
   -4.7140   40.9730  -11.2860 C   0  0  0  0  0  0  0  0  0  0  0  0
  1  2  2  0
  2  3  1  0
  3  4  2  0
  4  5  1  0
  5  6  1  0
  6  7  1  0
  7  8  1  0
  8  9  1  0
  9 10  1  0
  5 11  1  0
 10 11  1  0
  4 12  1  0
  1 13  1  0
 12 13  2  0
M  END
