mac-x0284
     RDKit          3D

 11 11  0  0  0  0  0  0  0  0999 V2000
   -4.1060   15.6460    0.5340 C   0  0  0  0  0  0  0  0  0  0  0  0
   -3.4850   15.3230   -0.7880 C   0  0  0  0  0  0  0  0  0  0  0  0
   -4.2950   15.3420   -1.8570 C   0  0  0  0  0  0  0  0  0  0  0  0
   -3.7710   15.0820   -3.0800 C   0  0  0  0  0  0  0  0  0  0  0  0
   -2.4330   14.8210   -3.1980 C   0  0  0  0  0  0  0  0  0  0  0  0
   -1.9110   14.5860   -4.4570 O   0  0  0  0  0  0  0  0  0  0  0  0
   -1.5980   14.7960   -2.1150 C   0  0  0  0  0  0  0  0  0  0  0  0
   -2.1480   15.0720   -0.9220 C   0  0  0  0  0  0  0  0  0  0  0  0
   -0.1280   14.5440   -2.3230 C   0  0  0  0  0  0  0  0  0  0  0  0
    0.6700   14.4680   -1.3820 O   0  0  0  0  0  0  0  0  0  0  0  0
    0.3470   14.4660   -3.4320 O   0  0  0  0  0  0  0  0  0  0  0  0
  1  2  1  0
  2  3  2  0
  3  4  1  0
  4  5  2  0
  5  6  1  0
  5  7  1  0
  2  8  1  0
  7  8  2  0
  7  9  1  0
  9 10  2  0
  9 11  1  0
M  END
