mac-x0357
     RDKit          3D

 11 11  0  0  0  0  0  0  0  0999 V2000
    2.3650   13.1640   -4.6890 C   0  0  0  0  0  0  0  0  0  0  0  0
    1.0220   12.4750   -4.9450 C   0  0  0  0  0  0  0  0  0  0  0  0
    0.8350   11.8190   -6.1410 C   0  0  0  0  0  0  0  0  0  0  0  0
    1.8640   11.8270   -7.0710 O   0  0  0  0  0  0  0  0  0  0  0  0
   -0.3500   11.2020   -6.4550 C   0  0  0  0  0  0  0  0  0  0  0  0
   -1.3510   11.2020   -5.5080 C   0  0  0  0  0  0  0  0  0  0  0  0
   -1.1510   11.8580   -4.2870 C   0  0  0  0  0  0  0  0  0  0  0  0
    0.0260   12.5020   -3.9920 C   0  0  0  0  0  0  0  0  0  0  0  0
    0.2120   13.2510   -2.6460 C   0  0  0  0  0  0  0  0  0  0  0  0
   -0.4620   14.2610   -2.3890 O   0  0  0  0  0  0  0  0  0  0  0  0
    1.0310   12.9290   -1.7900 O   0  0  0  0  0  0  0  0  0  0  0  0
  1  2  1  0
  2  3  2  0
  3  4  1  0
  3  5  1  0
  5  6  2  0
  6  7  1  0
  2  8  1  0
  7  8  2  0
  8  9  1  0
  9 10  2  0
  9 11  1  0
M  END
