mac-x0206
     RDKit          3D

 10 10  0  0  0  0  0  0  0  0999 V2000
   -2.9820   15.1480   -0.5120 N   0  0  0  0  0  0  0  0  0  0  0  0
   -4.3280   15.1270   -0.9680 C   0  0  0  0  0  0  0  0  0  0  0  0
   -4.5640   15.1430   -2.1140 O   0  0  0  0  0  0  0  0  0  0  0  0
   -5.4510   15.0320    0.0680 C   0  0  0  0  0  0  0  0  0  0  0  0
   -5.2860   15.0920    1.4330 C   0  0  0  0  0  0  0  0  0  0  0  0
   -6.4120   14.9770    2.2440 C   0  0  0  0  0  0  0  0  0  0  0  0
   -7.6620   14.7680    1.7580 C   0  0  0  0  0  0  0  0  0  0  0  0
   -7.8080   14.6950    0.4090 C   0  0  0  0  0  0  0  0  0  0  0  0
   -6.7090   14.8290   -0.3890 C   0  0  0  0  0  0  0  0  0  0  0  0
   -6.8420   14.7630   -1.7310 O   0  0  0  0  0  0  0  0  0  0  0  0
  1  2  1  0
  2  3  2  0
  2  4  1  0
  4  5  2  0
  5  6  1  0
  6  7  2  0
  7  8  1  0
  4  9  1  0
  8  9  2  0
  9 10  1  0
M  END
