mac-x0263
     RDKit          3D

 14 15  0  0  0  0  0  0  0  0999 V2000
  -11.5170   14.4110    2.6680 O   0  0  0  0  0  0  0  0  0  0  0  0
  -10.7710   15.4090    2.7030 C   0  0  0  0  0  0  0  0  0  0  0  0
  -11.0820   16.4080    3.3740 O   0  0  0  0  0  0  0  0  0  0  0  0
   -9.5140   15.4550    1.8910 C   0  0  0  0  0  0  0  0  0  0  0  0
   -8.8040   14.1300    1.6520 C   0  0  0  0  0  0  0  0  0  0  0  0
   -7.5420   14.4830    0.9280 C   0  0  0  0  0  0  0  0  0  0  0  0
   -7.4250   14.8260   -0.3340 N   0  0  0  0  0  0  0  0  0  0  0  0
   -6.1290   15.1440   -0.5590 C   0  0  0  0  0  0  0  0  0  0  0  0
   -5.4250   15.5710   -1.7060 C   0  0  0  0  0  0  0  0  0  0  0  0
   -4.0550   15.7760   -1.6080 C   0  0  0  0  0  0  0  0  0  0  0  0
   -3.3870   15.5880   -0.4080 C   0  0  0  0  0  0  0  0  0  0  0  0
   -4.0840   15.1840    0.7160 C   0  0  0  0  0  0  0  0  0  0  0  0
   -5.4690   14.9600    0.6320 C   0  0  0  0  0  0  0  0  0  0  0  0
   -6.3690   14.5460    1.5280 N   0  0  0  0  0  0  0  0  0  0  0  0
  1  2  1  0
  2  3  2  0
  2  4  1  0
  4  5  1  0
  5  6  1  0
  6  7  2  0
  7  8  1  0
  8  9  2  0
  9 10  1  0
 10 11  2  0
 11 12  1  0
  8 13  1  0
 12 13  2  0
  6 14  1  0
 13 14  1  0
M  END
