mac-x0282
     RDKit          3D

  9 10  0  0  0  0  0  0  0  0999 V2000
   -4.4010   15.2840    0.2100 C   0  0  0  0  0  0  0  0  0  0  0  0
   -3.6290   15.2410   -0.9280 C   0  0  0  0  0  0  0  0  0  0  0  0
   -2.3090   15.0280   -0.5130 C   0  0  0  0  0  0  0  0  0  0  0  0
   -1.0990   14.8790   -1.1880 C   0  0  0  0  0  0  0  0  0  0  0  0
    0.0440   14.6940   -0.4090 C   0  0  0  0  0  0  0  0  0  0  0  0
   -0.0700   14.6490    0.9680 C   0  0  0  0  0  0  0  0  0  0  0  0
   -1.2170   14.8130    1.5900 N   0  0  0  0  0  0  0  0  0  0  0  0
   -2.3350   14.9900    0.8600 C   0  0  0  0  0  0  0  0  0  0  0  0
   -3.6140   15.1260    1.2830 N   0  0  0  0  0  0  0  0  0  0  0  0
  1  2  2  0
  2  3  1  0
  3  4  2  0
  4  5  1  0
  5  6  2  0
  6  7  1  0
  3  8  1  0
  7  8  2  0
  1  9  1  0
  8  9  1  0
M  END
