mac-x0397
     RDKit          3D

 11 12  0  0  0  0  0  0  0  0999 V2000
   -6.5860   15.6370   -2.2940 Cl  0  0  0  0  0  0  0  0  0  0  0  0
   -6.4540   14.8760    3.1250 N   0  0  0  0  0  0  0  0  0  0  0  0
   -5.5950   14.8810    1.9740 C   0  0  0  0  0  0  0  0  0  0  0  0
   -6.0290   15.1230    0.6940 N   0  0  0  0  0  0  0  0  0  0  0  0
   -4.9040   15.0530   -0.2100 C   0  0  0  0  0  0  0  0  0  0  0  0
   -5.0080   15.2440   -1.5940 C   0  0  0  0  0  0  0  0  0  0  0  0
   -3.8910   15.1670   -2.3930 C   0  0  0  0  0  0  0  0  0  0  0  0
   -2.6550   14.8620   -1.8240 C   0  0  0  0  0  0  0  0  0  0  0  0
   -2.5440   14.6500   -0.4540 C   0  0  0  0  0  0  0  0  0  0  0  0
   -3.6770   14.7590    0.3630 C   0  0  0  0  0  0  0  0  0  0  0  0
   -3.9390   14.5670    1.9980 S   0  0  0  0  0  0  0  0  0  0  0  0
  2  3  1  0
  3  4  2  0
  4  5  1  0
  1  6  1  0
  5  6  2  0
  6  7  1  0
  7  8  2  0
  8  9  1  0
  5 10  1  0
  9 10  2  0
  3 11  1  0
 10 11  1  0
M  END
