mac-x0365
     RDKit          3D

 11 11  0  0  0  0  0  0  0  0999 V2000
   -0.6640   14.8030   -1.6100 O   0  0  0  0  0  0  0  0  0  0  0  0
   -1.7470   14.8870   -2.2130 C   0  0  0  0  0  0  0  0  0  0  0  0
   -1.7390   14.7430   -3.4200 O   0  0  0  0  0  0  0  0  0  0  0  0
   -3.0990   15.0090   -1.5100 C   0  0  0  0  0  0  0  0  0  0  0  0
   -3.2770   14.9700   -0.1500 C   0  0  0  0  0  0  0  0  0  0  0  0
   -4.5740   15.0410    0.3840 C   0  0  0  0  0  0  0  0  0  0  0  0
   -5.6630   15.1680   -0.4710 C   0  0  0  0  0  0  0  0  0  0  0  0
   -6.9900   15.2380   -0.0830 O   0  0  0  0  0  0  0  0  0  0  0  0
   -5.4360   15.2290   -1.8140 C   0  0  0  0  0  0  0  0  0  0  0  0
   -4.1700   15.1410   -2.3260 C   0  0  0  0  0  0  0  0  0  0  0  0
   -6.4820   15.3990   -2.6560 F   0  0  0  0  0  0  0  0  0  0  0  0
  1  2  1  0
  2  3  2  0
  2  4  1  0
  4  5  2  0
  5  6  1  0
  6  7  2  0
  7  8  1  0
  7  9  1  0
  4 10  1  0
  9 10  2  0
  9 11  1  0
M  END
