mac-x0358
     RDKit          3D

 11 11  0  0  0  0  0  0  0  0999 V2000
    1.3220   12.7890   -2.0320 O   0  0  0  0  0  0  0  0  0  0  0  0
    0.8190   12.3210   -3.0230 C   0  0  0  0  0  0  0  0  0  0  0  0
    0.2840   11.2310   -2.9740 O   0  0  0  0  0  0  0  0  0  0  0  0
    0.8480   12.9990   -4.3680 C   0  0  0  0  0  0  0  0  0  0  0  0
   -0.5150   13.4700   -4.8240 C   0  0  0  0  0  0  0  0  0  0  0  0
   -0.7530   14.8110   -4.9510 C   0  0  0  0  0  0  0  0  0  0  0  0
   -1.9800   15.2520   -5.3880 C   0  0  0  0  0  0  0  0  0  0  0  0
   -2.9760   14.3440   -5.6990 C   0  0  0  0  0  0  0  0  0  0  0  0
   -2.7280   13.0080   -5.5410 C   0  0  0  0  0  0  0  0  0  0  0  0
   -1.4890   12.5770   -5.1060 C   0  0  0  0  0  0  0  0  0  0  0  0
   -1.2130   11.2100   -4.9820 O   0  0  0  0  0  0  0  0  0  0  0  0
  1  2  1  0
  2  3  2  0
  2  4  1  0
  4  5  1  0
  5  6  2  0
  6  7  1  0
  7  8  2  0
  8  9  1  0
  5 10  1  0
  9 10  2  0
 10 11  1  0
M  END
