mac-x0328
     RDKit          3D

 10 10  0  0  0  0  0  0  0  0999 V2000
   -1.6790   14.6810   -3.7510 O   0  0  0  0  0  0  0  0  0  0  0  0
   -1.9150   14.7710   -2.5180 C   0  0  0  0  0  0  0  0  0  0  0  0
   -0.9780   14.6600   -1.7040 O   0  0  0  0  0  0  0  0  0  0  0  0
   -3.3240   14.9300   -1.9600 C   0  0  0  0  0  0  0  0  0  0  0  0
   -4.3960   15.1240   -2.8000 C   0  0  0  0  0  0  0  0  0  0  0  0
   -5.6640   15.2240   -2.2480 C   0  0  0  0  0  0  0  0  0  0  0  0
   -5.8820   15.1120   -0.8890 C   0  0  0  0  0  0  0  0  0  0  0  0
   -7.1870   15.1890   -0.4090 O   0  0  0  0  0  0  0  0  0  0  0  0
   -4.8130   14.8960   -0.0510 C   0  0  0  0  0  0  0  0  0  0  0  0
   -3.5370   14.7990   -0.5870 C   0  0  0  0  0  0  0  0  0  0  0  0
  1  2  1  0
  2  3  2  0
  2  4  1  0
  4  5  2  0
  5  6  1  0
  6  7  2  0
  7  8  1  0
  7  9  1  0
  4 10  1  0
  9 10  2  0
M  END
