mac-x0223
     RDKit          3D

 13 13  0  0  0  0  0  0  0  0999 V2000
    1.4970   18.2980   -5.2070 C   0  0  0  0  0  0  0  0  0  0  0  0
    0.1370   18.1960   -4.8970 O   0  0  0  0  0  0  0  0  0  0  0  0
   -0.3700   16.9100   -4.8020 C   0  0  0  0  0  0  0  0  0  0  0  0
    0.4800   15.8160   -4.6520 C   0  0  0  0  0  0  0  0  0  0  0  0
   -0.1190   14.5860   -4.5030 C   0  0  0  0  0  0  0  0  0  0  0  0
    0.7050   13.2980   -4.3550 C   0  0  0  0  0  0  0  0  0  0  0  0
    0.4850   12.6310   -3.0040 C   0  0  0  0  0  0  0  0  0  0  0  0
   -0.1020   11.5190   -3.0310 O   0  0  0  0  0  0  0  0  0  0  0  0
    0.8990   13.1450   -1.9670 O   0  0  0  0  0  0  0  0  0  0  0  0
   -1.4340   14.4600   -4.5140 C   0  0  0  0  0  0  0  0  0  0  0  0
   -2.2820   15.5780   -4.6580 C   0  0  0  0  0  0  0  0  0  0  0  0
   -1.7340   16.7650   -4.8250 C   0  0  0  0  0  0  0  0  0  0  0  0
   -2.5220   17.8470   -4.8840 O   0  0  0  0  0  0  0  0  0  0  0  0
  1  2  1  0
  2  3  1  0
  3  4  2  0
  4  5  1  0
  5  6  1  0
  6  7  1  0
  7  8  2  0
  7  9  1  0
  5 10  2  0
 10 11  1  0
  3 12  1  0
 11 12  2  0
 12 13  1  0
M  END
