mac-x0375
     RDKit          3D

 11 11  0  0  0  0  0  0  0  0999 V2000
    1.3490   12.7320   -2.5360 O   0  0  0  0  0  0  0  0  0  0  0  0
    1.0980   12.0100   -3.4910 C   0  0  0  0  0  0  0  0  0  0  0  0
    1.0600   10.7740   -3.3430 O   0  0  0  0  0  0  0  0  0  0  0  0
    0.8190   12.6050   -4.8610 C   0  0  0  0  0  0  0  0  0  0  0  0
    0.7670   11.6070   -5.8820 O   0  0  0  0  0  0  0  0  0  0  0  0
   -0.4090   10.8550   -5.9610 C   0  0  0  0  0  0  0  0  0  0  0  0
   -1.5960   11.2050   -5.3650 C   0  0  0  0  0  0  0  0  0  0  0  0
   -2.7380   10.4070   -5.5110 C   0  0  0  0  0  0  0  0  0  0  0  0
   -2.6950    9.2940   -6.2780 C   0  0  0  0  0  0  0  0  0  0  0  0
   -1.5220    8.9420   -6.8430 C   0  0  0  0  0  0  0  0  0  0  0  0
   -0.3850    9.7170   -6.6860 C   0  0  0  0  0  0  0  0  0  0  0  0
  1  2  1  0
  2  3  2  0
  2  4  1  0
  4  5  1  0
  5  6  1  0
  6  7  2  0
  7  8  1  0
  8  9  2  0
  9 10  1  0
  6 11  1  0
 10 11  2  0
M  END
