mac-x0453
     RDKit          3D

  8  8  0  0  0  0  0  0  0  0999 V2000
   -6.8100   13.7980    2.6210 N   0  0  0  0  0  0  0  0  0  0  0  0
   -5.9720   13.7090    1.4380 C   0  0  0  0  0  0  0  0  0  0  0  0
   -5.1440   14.9750    1.2440 C   0  0  0  0  0  0  0  0  0  0  0  0
   -4.2790   14.9030   -0.0380 C   0  0  0  0  0  0  0  0  0  0  0  0
   -2.9510   14.5800   -0.1030 C   0  0  0  0  0  0  0  0  0  0  0  0
   -2.5900   14.6080   -1.3630 N   0  0  0  0  0  0  0  0  0  0  0  0
   -3.6470   14.9120   -2.0920 C   0  0  0  0  0  0  0  0  0  0  0  0
   -4.6790   15.1030   -1.2780 N   0  0  0  0  0  0  0  0  0  0  0  0
  1  2  1  0
  2  3  1  0
  3  4  1  0
  4  5  2  0
  5  6  1  0
  6  7  1  0
  4  8  1  0
  7  8  2  0
M  END
