mac-x0396
     RDKit          3D

  9  9  0  0  0  0  0  0  0  0999 V2000
   -2.9570   15.0180    1.1810 N   0  0  0  0  0  0  0  0  0  0  0  0
   -3.6230   15.0430   -0.0780 C   0  0  0  0  0  0  0  0  0  0  0  0
   -3.0490   15.0470   -1.0790 O   0  0  0  0  0  0  0  0  0  0  0  0
   -5.1480   14.9480   -0.0720 C   0  0  0  0  0  0  0  0  0  0  0  0
   -5.7530   14.7480    1.1090 C   0  0  0  0  0  0  0  0  0  0  0  0
   -7.0930   14.5690    1.2110 C   0  0  0  0  0  0  0  0  0  0  0  0
   -7.7670   14.6260    0.0130 C   0  0  0  0  0  0  0  0  0  0  0  0
   -7.1740   14.8090   -1.1030 N   0  0  0  0  0  0  0  0  0  0  0  0
   -5.8700   14.9510   -1.2080 C   0  0  0  0  0  0  0  0  0  0  0  0
  1  2  1  0
  2  3  2  0
  2  4  1  0
  4  5  2  0
  5  6  1  0
  6  7  2  0
  7  8  1  0
  4  9  1  0
  8  9  2  0
M  END
