mac-x0354
     RDKit          3D

 15 16  0  0  0  0  0  0  0  0999 V2000
    0.8700   11.3520   -8.4700 C   0  0  0  0  0  0  0  0  0  0  0  0
    1.2030   11.6690   -7.0920 N   0  0  0  0  0  0  0  0  0  0  0  0
    2.2010   12.4580   -6.7510 N   0  0  0  0  0  0  0  0  0  0  0  0
    2.2600   12.5320   -5.4500 C   0  0  0  0  0  0  0  0  0  0  0  0
    1.2330   11.7180   -4.9210 C   0  0  0  0  0  0  0  0  0  0  0  0
    0.9280   11.4730   -3.4460 C   0  0  0  0  0  0  0  0  0  0  0  0
    1.3490   12.2710   -2.5720 O   0  0  0  0  0  0  0  0  0  0  0  0
    0.2820   10.4620   -3.0830 O   0  0  0  0  0  0  0  0  0  0  0  0
    0.5770   11.1790   -6.0450 C   0  0  0  0  0  0  0  0  0  0  0  0
   -0.6080   10.2150   -6.0740 C   0  0  0  0  0  0  0  0  0  0  0  0
   -0.5030    8.9770   -6.6940 C   0  0  0  0  0  0  0  0  0  0  0  0
   -1.5920    8.1240   -6.7270 C   0  0  0  0  0  0  0  0  0  0  0  0
   -2.7850    8.5100   -6.1570 C   0  0  0  0  0  0  0  0  0  0  0  0
   -2.9010    9.7400   -5.5590 C   0  0  0  0  0  0  0  0  0  0  0  0
   -1.8160   10.5880   -5.5230 C   0  0  0  0  0  0  0  0  0  0  0  0
  1  2  1  0
  2  3  1  0
  3  4  2  0
  4  5  1  0
  5  6  1  0
  6  7  2  0
  6  8  1  0
  2  9  1  0
  5  9  2  0
  9 10  1  0
 10 11  2  0
 11 12  1  0
 12 13  2  0
 13 14  1  0
 10 15  1  0
 14 15  2  0
M  END
