mac-x0451
     RDKit          3D

 11 12  0  0  0  0  0  0  0  0999 V2000
   -6.6090   14.7850    3.0930 N   0  0  0  0  0  0  0  0  0  0  0  0
   -5.7430   14.8310    1.9450 C   0  0  0  0  0  0  0  0  0  0  0  0
   -6.2010   15.0340    0.6750 N   0  0  0  0  0  0  0  0  0  0  0  0
   -5.1040   15.0400   -0.2520 C   0  0  0  0  0  0  0  0  0  0  0  0
   -5.2840   15.2190   -1.6310 C   0  0  0  0  0  0  0  0  0  0  0  0
   -4.1700   15.1990   -2.4440 C   0  0  0  0  0  0  0  0  0  0  0  0
   -2.9090   15.0340   -1.8620 C   0  0  0  0  0  0  0  0  0  0  0  0
   -2.7420   14.8560   -0.5090 C   0  0  0  0  0  0  0  0  0  0  0  0
   -3.8580   14.8470    0.3090 C   0  0  0  0  0  0  0  0  0  0  0  0
   -4.0690   14.6790    1.9520 S   0  0  0  0  0  0  0  0  0  0  0  0
   -1.8180   15.0240   -2.6420 F   0  0  0  0  0  0  0  0  0  0  0  0
  1  2  1  0
  2  3  2  0
  3  4  1  0
  4  5  2  0
  5  6  1  0
  6  7  2  0
  7  8  1  0
  4  9  1  0
  8  9  2  0
  2 10  1  0
  9 10  1  0
  7 11  1  0
M  END
