hit_F584
     RDKit          3D

 14 15  0  0  0  0  0  0  0  0999 V2000
  -18.2370   10.7450   24.2370 C   0  0  0  0  0  0  0  0  0  0  0  0
  -18.5960   12.0440   24.7000 C   0  0  0  0  0  0  0  0  0  0  0  0
  -19.7770   12.8820   26.6960 C   0  0  0  0  0  0  0  0  0  0  0  0
  -18.4740   13.4450   27.1870 C   0  0  0  0  0  0  0  0  0  0  0  0
  -18.1750   14.7090   26.3860 C   0  0  0  0  0  0  0  0  0  0  0  0
  -17.8490   13.1530   24.3650 C   0  0  0  0  0  0  0  0  0  0  0  0
  -19.7060   12.0960   25.5310 N   0  0  0  0  0  0  0  0  0  0  0  0
  -14.8030   13.8780   22.3780 C   0  0  0  0  0  0  0  0  0  0  0  0
  -15.9380   14.0500   23.2510 O   0  0  0  0  0  0  0  0  0  0  0  0
  -16.7380   12.9410   23.5250 C   0  0  0  0  0  0  0  0  0  0  0  0
  -16.4360   11.6890   23.0560 C   0  0  0  0  0  0  0  0  0  0  0  0
  -17.2200   10.5920   23.4470 C   0  0  0  0  0  0  0  0  0  0  0  0
  -18.0960   14.5330   24.8730 C   0  0  0  0  0  0  0  0  0  0  0  0
  -20.8590   13.0440   27.2590 O   0  0  0  0  0  0  0  0  0  0  0  0
  2  1  2  0
  4  3  1  0
  5  4  1  0
  6  2  1  0
  7  3  1  0
  7  2  1  0
  9  8  1  0
 10  6  2  0
 10  9  1  0
 11 10  1  0
 12  1  1  0
 12 11  2  0
 13  6  1  0
 13  5  1  0
 14  3  2  0
M  END