
     RDKit          3D

 24 26  0  0  0  0  0  0  0  0999 V2000
    7.0980   -0.3790   18.1610 O   0  0  0  0  0  0  0  0  0  0  0  0
    6.4680   -0.2950   19.2120 C   0  0  0  0  0  0  0  0  0  0  0  0
    5.4110    0.7130   19.3800 C   0  0  0  0  0  0  0  0  0  0  0  0
    4.8770    1.5130   17.9710 S   0  0  0  0  0  0  0  0  0  0  0  0
    3.7660    2.4430   18.8630 C   0  0  0  0  0  0  0  0  0  0  0  0
    3.7900    2.1480   20.1780 C   0  0  0  0  0  0  0  0  0  0  0  0
    4.7270    1.1490   20.4990 C   0  0  0  0  0  0  0  0  0  0  0  0
    6.7350   -1.0650   20.3100 N   0  0  0  0  0  0  0  0  0  0  0  0
    7.7590   -2.0240   20.3750 C   0  0  0  0  0  0  0  0  0  0  0  0
    7.4740   -3.2990   19.7940 C   0  0  0  0  0  0  0  0  0  0  0  0
    6.4220   -3.6270   19.2860 O   0  0  0  0  0  0  0  0  0  0  0  0
    8.9790   -1.7490   20.9940 C   0  0  0  0  0  0  0  0  0  0  0  0
    9.4080   -0.5350   21.6150 C   0  0  0  0  0  0  0  0  0  0  0  0
    8.4970    0.9430   21.6280 S   0  0  0  0  0  0  0  0  0  0  0  0
    9.6990    1.7340   22.6090 C   0  0  0  0  0  0  0  0  0  0  0  0
   10.7510    0.8850   22.8980 C   0  0  0  0  0  0  0  0  0  0  0  0
   10.5810   -0.3920   22.3290 C   0  0  0  0  0  0  0  0  0  0  0  0
    9.5460    3.0360   22.9980 N   0  0  0  0  0  0  0  0  0  0  0  0
   10.3790    3.4900   24.1210 C   0  0  0  0  0  0  0  0  0  0  0  0
   10.5370    4.9940   24.0660 C   0  0  0  0  0  0  0  0  0  0  0  0
    9.2660    5.6540   24.0180 O   0  0  0  0  0  0  0  0  0  0  0  0
    8.5160    5.2470   22.8600 C   0  0  0  0  0  0  0  0  0  0  0  0
    8.2680    3.7550   22.8580 C   0  0  0  0  0  0  0  0  0  0  0  0
    8.6960   -3.6850   18.6780 S   0  0  0  0  0  0  0  0  0  0  0  0
  2  1  2  0
  3  2  1  0
  4  3  1  0
  5  4  1  0
  6  5  2  0
  7  6  1  0
  7  3  2  0
  8  2  1  0
  9  8  1  0
 10  9  1  0
 11 10  2  0
 12  9  2  3
 13 12  1  0
 14 13  1  0
 15 14  1  0
 16 15  2  0
 17 13  2  0
 17 16  1  0
 18 15  1  0
 19 18  1  0
 20 19  1  0
 21 20  1  0
 22 21  1  0
 23 22  1  0
 23 18  1  0
 10 24  1  0
M  END
