
     RDKit          3D

  4  4  0  0  0  0  0  0  0  0999 V2000
    2.9560    3.5030  -10.4830 N   0  0  0  0  0  0  0  0  0  0  0  0
    4.1130    2.6990  -10.4400 C   0  0  1  0  0  0  0  0  0  0  0  0
    4.0440    1.2430  -10.9320 C   0  0  0  0  0  0  0  0  0  0  0  0
    4.8380    2.2940  -11.7240 C   0  0  0  0  0  0  0  0  0  0  0  0
  2  1  1  6
  3  2  1  0
  4  3  1  0
  4  2  1  0
M  END
