
     RDKit          3D

  4  3  0  0  0  0  0  0  0  0999 V2000
   17.8200  -17.9740   30.0980 N   0  0  0  0  0  0  0  0  0  0  0  0
   16.5960  -18.5020   29.4710 C   0  0  0  0  0  0  0  0  0  0  0  0
   16.8120  -19.9450   29.0280 C   0  0  0  0  0  0  0  0  0  0  0  0
   17.9420  -20.3610   28.8930 O   0  0  0  0  0  0  0  0  0  0  0  0
  2  1  1  0
  3  2  1  0
  4  3  1  0
M  END
