
     RDKit          3D

 26 28  0  0  0  0  0  0  0  0999 V2000
   10.9860    5.1030   22.8730 N   0  0  0  0  0  0  0  0  0  0  0  0
    6.9840   -2.2390   20.8790 N   0  0  0  0  0  0  0  0  0  0  0  0
    8.8510   -1.7840   23.0110 N   0  0  0  0  0  0  0  0  0  0  0  0
   10.0170    5.7560   23.5170 C   0  0  0  0  0  0  0  0  0  0  0  0
   12.3940    0.9310   23.0940 C   0  0  0  0  0  0  0  0  0  0  0  0
    7.8520   -1.0570   20.8830 C   0  0  0  0  0  0  0  0  0  0  0  0
    5.9520   -3.9210   19.7850 O   0  0  0  0  0  0  0  0  0  0  0  0
   10.0890   -2.0810   23.7540 C   0  0  0  0  0  0  0  0  0  0  0  0
   12.2740    4.8130   23.4860 C   0  0  0  0  0  0  0  0  0  0  0  0
   11.3390    0.1400   23.5930 C   0  0  1  0  0  0  0  0  0  0  0  0
   13.4000   -1.0530   22.1800 C   0  0  0  0  0  0  0  0  0  0  0  0
   10.9010    2.2650   24.1140 C   0  0  0  0  0  0  0  0  0  0  0  0
   12.0790    2.2990   23.4230 C   0  0  2  0  0  0  0  0  0  0  0  0
    6.6410   -2.6560   22.2470 C   0  0  0  0  0  0  0  0  0  0  0  0
    6.6490   -2.9170   19.7580 C   0  0  0  0  0  0  0  0  0  0  0  0
   13.4310    0.3170   22.3910 C   0  0  0  0  0  0  0  0  0  0  0  0
    7.9210   -2.9410   23.0480 C   0  0  0  0  0  0  0  0  0  0  0  0
    9.1370   -1.3970   21.6070 C   0  0  0  0  0  0  0  0  0  0  0  0
    7.1950   -2.3970   18.4400 C   0  0  0  0  0  0  0  0  0  0  0  0
    8.7250    5.9350   22.7680 C   0  0  0  0  0  0  0  0  0  0  0  0
   10.4450    0.9760   24.2200 N   0  0  0  0  0  0  0  0  0  0  0  0
   10.1720    6.1740   24.6620 O   0  0  0  0  0  0  0  0  0  0  0  0
   11.2840   -1.2420   23.3590 C   0  0  2  0  0  0  0  0  0  0  0  0
   12.8620    3.5060   22.9960 C   0  0  0  0  0  0  0  0  0  0  0  0
   12.3430   -1.8170   22.6520 C   0  0  0  0  0  0  0  0  0  0  0  0
    8.6590   -3.3420   18.3770 S   0  0  0  0  0  0  0  0  0  0  0  0
  4  1  1  0
  6  2  1  0
  8  3  1  0
  9  1  1  0
 10  5  1  0
 13 12  1  0
 13  5  1  0
 14  2  1  0
 15  7  1  0
 15  2  1  0
 16 11  1  0
 16  5  1  0
 17 14  1  0
 17  3  1  0
 18  6  1  0
 18  3  1  0
 19 15  1  0
 20  4  1  0
 21 12  1  0
 10 21  1  6
 22  4  1  0
 23  8  1  6
 23 10  1  0
 13 24  1  6
 24  9  1  0
 25 23  1  0
 25 11  1  0
 19 26  1  0
M  END
