x0678
     RDKit          3D

 16 17  0  0  0  0  0  0  0  0999 V2000
    9.4040    1.0680   21.0150 O   0  0  0  0  0  0  0  0  0  0  0  0
    8.8500    0.2760   21.7080 C   0  0  0  0  0  0  0  0  0  0  0  0
    9.4020   -0.2050   23.0430 C   0  0  0  0  0  0  0  0  0  0  0  0
   10.9190   -0.1110   23.1090 C   0  0  2  0  0  0  0  0  0  0  0  0
   11.5720   -1.0600   22.1040 C   0  0  0  0  0  0  0  0  0  0  0  0
   12.8180   -1.7530   22.6490 C   0  0  0  0  0  0  0  0  0  0  0  0
   13.6290   -0.9180   23.6290 C   0  0  0  0  0  0  0  0  0  0  0  0
   12.8010   -0.2070   24.6930 C   0  0  0  0  0  0  0  0  0  0  0  0
   11.3030   -0.4330   24.5430 C   0  0  0  0  0  0  0  0  0  0  0  0
    7.5930   -0.2800   21.3200 N   0  0  0  0  0  0  0  0  0  0  0  0
    6.9770    0.1520   20.1030 C   0  0  0  0  0  0  0  0  0  0  0  0
    5.7230    0.7430   20.2180 C   0  0  0  0  0  0  0  0  0  0  0  0
    5.1220    1.1710   19.0390 C   0  0  0  0  0  0  0  0  0  0  0  0
    5.8030    0.9910   17.8440 C   0  0  0  0  0  0  0  0  0  0  0  0
    7.0030    0.4310   17.8030 N   0  0  0  0  0  0  0  0  0  0  0  0
    7.6170    0.0080   18.8870 C   0  0  0  0  0  0  0  0  0  0  0  0
  1  2  2  0
  2  3  1  0
  4  3  1  1
  4  5  1  0
  5  6  1  0
  6  7  1  0
  7  8  1  0
  4  9  1  0
  8  9  1  0
  2 10  1  0
 10 11  1  0
 11 12  2  0
 12 13  1  0
 13 14  2  0
 14 15  1  0
 11 16  1  0
 15 16  2  0
M  END
