
     RDKit          3D

 49 53  0  0  0  0  0  0  0  0999 V2000
   12.7840    8.1740   25.7790 C   0  0  0  0  0  0  0  0  0  0  0  0
   13.6280    7.7550   27.8770 C   0  0  0  0  0  0  0  0  0  0  0  0
   13.5570    9.1300   28.1800 C   0  0  0  0  0  0  0  0  0  0  0  0
   12.2980    7.6670   24.4520 C   0  0  0  0  0  0  0  0  0  0  0  0
   12.6890    9.5540   26.0900 C   0  0  0  0  0  0  0  0  0  0  0  0
   12.0300    8.4600   23.5640 O   0  0  0  0  0  0  0  0  0  0  0  0
   13.2320    7.2660   26.6800 N   0  0  0  0  0  0  0  0  0  0  0  0
   13.0980   10.0310   27.2900 N   0  0  0  0  0  0  0  0  0  0  0  0
   12.1240    6.3170   24.2830 N   0  0  0  0  0  0  0  0  0  0  0  0
   11.5880    5.7510   23.0470 C   0  0  2  0  0  0  0  0  0  0  0  0
   10.8100    4.5450   23.6290 C   0  0  0  0  0  0  0  0  0  0  0  0
   11.0680    4.1060   24.7730 O   0  0  0  0  0  0  0  0  0  0  0  0
   12.6860    5.1900   22.0730 C   0  0  2  0  0  0  0  0  0  0  0  0
   13.5730    4.1090   22.7130 C   0  0  0  0  0  0  0  0  0  0  0  0
   14.7580    3.6520   21.8620 C   0  0  0  0  0  0  0  0  0  0  0  0
   15.5240    4.7760   21.1690 C   0  0  0  0  0  0  0  0  0  0  0  0
   14.5760    5.7390   20.4810 C   0  0  0  0  0  0  0  0  0  0  0  0
   13.5900    6.2930   21.4930 C   0  0  0  0  0  0  0  0  0  0  0  0
    9.8290    3.9410   22.8640 N   0  0  0  0  0  0  0  0  0  0  0  0
    9.1330    2.7880   23.3960 C   0  0  1  0  0  0  0  0  0  0  0  0
    7.5780    3.0780   23.3940 C   0  0  1  0  0  0  0  0  0  0  0  0
    6.8360    1.8320   23.8890 C   0  0  0  0  0  0  0  0  0  0  0  0
    7.2510    4.2370   24.3570 C   0  0  0  0  0  0  0  0  0  0  0  0
    7.0420    3.4940   22.0180 C   0  0  0  0  0  0  0  0  0  0  0  0
    9.5070    1.5180   22.5510 C   0  0  0  0  0  0  0  0  0  0  0  0
    9.2440    1.4810   21.3480 O   0  0  0  0  0  0  0  0  0  0  0  0
    9.2370   -1.6100   22.3610 C   0  0  0  0  0  0  0  0  0  0  0  0
   10.1890    0.4290   23.0890 N   0  0  0  0  0  0  0  0  0  0  0  0
    8.6820   -1.9040   23.4130 O   0  0  0  0  0  0  0  0  0  0  0  0
   10.5400   -0.7980   22.3640 C   0  0  1  0  0  0  0  0  0  0  0  0
   11.6100   -1.5180   23.2160 C   0  0  2  0  0  0  0  0  0  0  0  0
   11.8220   -0.6110   24.4400 C   0  0  2  0  0  0  0  0  0  0  0  0
   12.9500   -1.5690   22.4910 C   0  0  0  0  0  0  0  0  0  0  0  0
   13.6140   -0.2230   22.7950 C   0  0  0  0  0  0  0  0  0  0  0  0
   10.5800    0.2840   24.4940 C   0  0  0  0  0  0  0  0  0  0  0  0
   13.1140    0.1760   24.1860 C   0  0  0  0  0  0  0  0  0  0  0  0
    5.9710   -5.5810   21.7730 N   0  0  0  0  0  0  0  0  0  0  0  0
    8.6430   -1.9410   21.1560 N   0  0  0  0  0  0  0  0  0  0  0  0
    7.3660   -2.6510   21.1780 C   0  0  2  0  0  0  0  0  0  0  0  0
    7.5370   -4.0630   20.5340 C   0  0  2  0  0  0  0  0  0  0  0  0
    6.2740   -1.8500   20.4190 C   0  0  0  0  0  0  0  0  0  0  0  0
    6.2430   -0.3480   20.7340 C   0  0  0  0  0  0  0  0  0  0  0  0
    4.8340    0.2460   20.6690 C   0  0  0  0  0  0  0  0  0  0  0  0
    6.2270   -4.8690   20.6090 C   0  0  0  0  0  0  0  0  0  0  0  0
    4.8030   -6.3700   22.0400 C   0  0  1  0  0  0  0  0  0  0  0  0
    4.4500   -6.7040   23.4870 C   0  0  0  0  0  0  0  0  0  0  0  0
    3.6080   -5.7070   22.7260 C   0  0  0  0  0  0  0  0  0  0  0  0
    8.5210   -4.7360   21.2630 O   0  0  0  0  0  0  0  0  0  0  0  0
    5.4410   -4.8210   19.6670 O   0  0  0  0  0  0  0  0  0  0  0  0
  3  2  2  0
  4  1  1  0
  5  1  1  0
  6  4  2  0
  7  1  2  0
  7  2  1  0
  8  5  2  0
  8  3  1  0
  9  4  1  0
 10  9  1  1
 11 10  1  0
 12 11  2  0
 13 10  1  0
 13 14  1  1
 15 14  1  0
 16 15  1  0
 17 16  1  0
 18 13  1  0
 18 17  1  0
 19 11  1  0
 20 19  1  6
 21 20  1  0
 21 22  1  1
 23 21  1  0
 24 21  1  0
 25 20  1  0
 26 25  2  0
 28 25  1  0
 29 27  2  0
 30 28  1  0
 30 27  1  1
 31 30  1  0
 32 31  1  0
 31 33  1  6
 34 33  1  0
 35 28  1  0
 32 35  1  6
 36 34  1  0
 36 32  1  0
 38 27  1  0
 39 38  1  0
 40 39  1  0
 39 41  1  6
 42 41  1  0
 43 42  1  0
 44 37  1  0
 44 40  1  0
 45 37  1  1
 46 45  1  0
 47 46  1  0
 47 45  1  0
 40 48  1  1
 49 44  2  0
M  END
