
     RDKit          3D

 49 53  0  0  0  0  0  0  0  0999 V2000
   12.8300    8.2830   25.6060 C   0  0  0  0  0  0  0  0  0  0  0  0
   13.1900   10.0060   27.0380 C   0  0  0  0  0  0  0  0  0  0  0  0
   13.5700    9.1130   28.0140 C   0  0  0  0  0  0  0  0  0  0  0  0
   12.3960    7.7830   24.2620 C   0  0  0  0  0  0  0  0  0  0  0  0
   13.1880    7.3830   26.5930 C   0  0  0  0  0  0  0  0  0  0  0  0
   12.4230    8.5100   23.2690 O   0  0  0  0  0  0  0  0  0  0  0  0
   12.8130    9.6030   25.8260 N   0  0  0  0  0  0  0  0  0  0  0  0
   13.5650    7.7910   27.8070 N   0  0  0  0  0  0  0  0  0  0  0  0
   11.9700    6.5170   24.2570 N   0  0  0  0  0  0  0  0  0  0  0  0
   11.7530    5.6740   23.0990 C   0  0  2  0  0  0  0  0  0  0  0  0
   10.8550    4.5370   23.6000 C   0  0  0  0  0  0  0  0  0  0  0  0
   11.0820    4.0330   24.6960 O   0  0  0  0  0  0  0  0  0  0  0  0
   13.1590    5.3340   22.5650 C   0  0  2  0  0  0  0  0  0  0  0  0
   13.5680    6.3000   21.4430 C   0  0  0  0  0  0  0  0  0  0  0  0
   14.6380    5.7080   20.5220 C   0  0  0  0  0  0  0  0  0  0  0  0
   15.5550    4.7600   21.2680 C   0  0  0  0  0  0  0  0  0  0  0  0
   14.7810    3.5510   21.7700 C   0  0  0  0  0  0  0  0  0  0  0  0
   13.3350    3.8760   22.1510 C   0  0  0  0  0  0  0  0  0  0  0  0
    9.8470    4.1330   22.8260 N   0  0  0  0  0  0  0  0  0  0  0  0
    9.0840    2.9450   23.1790 C   0  0  1  0  0  0  0  0  0  0  0  0
    7.5780    3.2140   23.3240 C   0  0  2  0  0  0  0  0  0  0  0  0
    7.3390    4.2010   24.4660 C   0  0  0  0  0  0  0  0  0  0  0  0
    6.8560    1.9110   23.6800 C   0  0  0  0  0  0  0  0  0  0  0  0
    6.9590    3.7920   22.0480 C   0  0  0  0  0  0  0  0  0  0  0  0
    9.4640    1.7700   22.2620 C   0  0  0  0  0  0  0  0  0  0  0  0
    9.1250    1.6970   21.0920 O   0  0  0  0  0  0  0  0  0  0  0  0
    9.1280   -1.3920   22.2040 C   0  0  0  0  0  0  0  0  0  0  0  0
   10.1600    0.7750   22.8230 N   0  0  0  0  0  0  0  0  0  0  0  0
    8.6500   -1.8130   23.2570 O   0  0  0  0  0  0  0  0  0  0  0  0
   10.3890   -0.5240   22.1870 C   0  0  1  0  0  0  0  0  0  0  0  0
   11.5670   -1.1000   22.9870 C   0  0  2  0  0  0  0  0  0  0  0  0
   11.5030   -0.4070   24.3740 C   0  0  2  0  0  0  0  0  0  0  0  0
   12.9900   -0.8030   22.4650 C   0  0  0  0  0  0  0  0  0  0  0  0
   13.5160    0.2960   23.3810 C   0  0  0  0  0  0  0  0  0  0  0  0
   10.7180    0.8770   24.1710 C   0  0  0  0  0  0  0  0  0  0  0  0
   12.9710   -0.1210   24.7110 C   0  0  0  0  0  0  0  0  0  0  0  0
    6.1570   -5.3140   21.7740 N   0  0  0  0  0  0  0  0  0  0  0  0
    8.5650   -1.6220   21.0180 N   0  0  0  0  0  0  0  0  0  0  0  0
    7.2770   -2.3160   20.8660 C   0  0  2  0  0  0  0  0  0  0  0  0
    7.5390   -3.7760   20.5220 C   0  0  2  0  0  0  0  0  0  0  0  0
    6.4160   -1.7110   19.7440 C   0  0  0  0  0  0  0  0  0  0  0  0
    6.0700   -0.2290   19.7720 C   0  0  0  0  0  0  0  0  0  0  0  0
    5.8010    0.3210   18.3500 C   0  0  0  0  0  0  0  0  0  0  0  0
    6.2780   -4.5920   20.6530 C   0  0  0  0  0  0  0  0  0  0  0  0
    5.0010   -6.1280   22.0260 C   0  0  1  0  0  0  0  0  0  0  0  0
    4.6660   -6.4380   23.4440 C   0  0  0  0  0  0  0  0  0  0  0  0
    3.8120   -5.4930   22.6660 C   0  0  0  0  0  0  0  0  0  0  0  0
    8.5270   -4.3510   21.3220 O   0  0  0  0  0  0  0  0  0  0  0  0
    5.4420   -4.5970   19.7520 O   0  0  0  0  0  0  0  0  0  0  0  0
  3  2  2  0
  4  1  1  0
  5  1  1  0
  6  4  2  0
  7  2  1  0
  7  1  2  0
  8  5  2  0
  8  3  1  0
  9  4  1  0
 10  9  1  1
 11 10  1  0
 12 11  2  0
 13 10  1  0
 13 14  1  6
 15 14  1  0
 16 15  1  0
 17 16  1  0
 18 17  1  0
 18 13  1  0
 19 11  1  0
 20 19  1  6
 21 20  1  0
 21 22  1  1
 23 21  1  0
 24 21  1  0
 25 20  1  0
 26 25  2  0
 28 25  1  0
 29 27  2  0
 30 28  1  0
 30 27  1  1
 31 30  1  0
 32 31  1  0
 31 33  1  6
 34 33  1  0
 35 28  1  0
 32 35  1  6
 36 34  1  0
 36 32  1  0
 38 27  1  0
 39 38  1  0
 40 39  1  0
 39 41  1  6
 42 41  1  0
 43 42  1  0
 44 40  1  0
 44 37  1  0
 45 37  1  1
 46 45  1  0
 47 46  1  0
 47 45  1  0
 40 48  1  1
 49 44  2  0
M  END
