
     RDKit          3D

 49 53  0  0  0  0  0  0  0  0999 V2000
   12.8650    8.2200   25.7860 C   0  0  0  0  0  0  0  0  0  0  0  0
   13.6160    7.7520   27.9300 C   0  0  0  0  0  0  0  0  0  0  0  0
   13.6230    9.1290   28.2260 C   0  0  0  0  0  0  0  0  0  0  0  0
   12.3960    7.7160   24.4530 C   0  0  0  0  0  0  0  0  0  0  0  0
   12.8470    9.6010   26.0880 C   0  0  0  0  0  0  0  0  0  0  0  0
   12.1280    8.4860   23.5360 O   0  0  0  0  0  0  0  0  0  0  0  0
   13.2190    7.2940   26.7150 N   0  0  0  0  0  0  0  0  0  0  0  0
   13.2410   10.0440   27.3070 N   0  0  0  0  0  0  0  0  0  0  0  0
   12.2250    6.3620   24.3310 N   0  0  0  0  0  0  0  0  0  0  0  0
   11.6940    5.7620   23.1090 C   0  0  2  0  0  0  0  0  0  0  0  0
   10.8880    4.5750   23.6800 C   0  0  0  0  0  0  0  0  0  0  0  0
   11.1130    4.1130   24.8300 O   0  0  0  0  0  0  0  0  0  0  0  0
   12.7720    5.1710   22.1520 C   0  0  2  0  0  0  0  0  0  0  0  0
   13.7210    4.1710   22.8360 C   0  0  0  0  0  0  0  0  0  0  0  0
   14.8060    3.6690   21.8910 C   0  0  0  0  0  0  0  0  0  0  0  0
   15.5550    4.8140   21.2060 C   0  0  0  0  0  0  0  0  0  0  0  0
   14.5750    5.7100   20.4690 C   0  0  0  0  0  0  0  0  0  0  0  0
   13.5720    6.2780   21.4560 C   0  0  0  0  0  0  0  0  0  0  0  0
    9.9240    4.0160   22.8730 N   0  0  0  0  0  0  0  0  0  0  0  0
    9.2080    2.8700   23.3660 C   0  0  1  0  0  0  0  0  0  0  0  0
    7.6500    3.1330   23.3810 C   0  0  1  0  0  0  0  0  0  0  0  0
    6.9310    1.8940   23.9120 C   0  0  0  0  0  0  0  0  0  0  0  0
    7.3880    4.2550   24.4080 C   0  0  0  0  0  0  0  0  0  0  0  0
    7.0670    3.5100   22.0120 C   0  0  0  0  0  0  0  0  0  0  0  0
    9.5780    1.6140   22.5130 C   0  0  0  0  0  0  0  0  0  0  0  0
    9.3570    1.5860   21.3110 O   0  0  0  0  0  0  0  0  0  0  0  0
    9.2580   -1.5390   22.3490 C   0  0  0  0  0  0  0  0  0  0  0  0
   10.2030    0.5090   23.0770 N   0  0  0  0  0  0  0  0  0  0  0  0
    8.6500   -1.7950   23.3910 O   0  0  0  0  0  0  0  0  0  0  0  0
   10.5570   -0.7170   22.3550 C   0  0  1  0  0  0  0  0  0  0  0  0
   11.6210   -1.4250   23.2130 C   0  0  2  0  0  0  0  0  0  0  0  0
   11.7680   -0.5400   24.4760 C   0  0  2  0  0  0  0  0  0  0  0  0
   12.9900   -1.4160   22.5110 C   0  0  0  0  0  0  0  0  0  0  0  0
   13.6450   -0.0970   22.9210 C   0  0  0  0  0  0  0  0  0  0  0  0
   10.5530    0.3750   24.4940 C   0  0  0  0  0  0  0  0  0  0  0  0
   13.1000    0.2130   24.3180 C   0  0  0  0  0  0  0  0  0  0  0  0
    6.0900   -5.5720   21.7740 N   0  0  0  0  0  0  0  0  0  0  0  0
    8.7060   -1.9180   21.1430 N   0  0  0  0  0  0  0  0  0  0  0  0
    7.4350   -2.6450   21.2010 C   0  0  2  0  0  0  0  0  0  0  0  0
    7.5900   -4.0310   20.5290 C   0  0  2  0  0  0  0  0  0  0  0  0
    6.2630   -1.8890   20.5390 C   0  0  0  0  0  0  0  0  0  0  0  0
    6.3380   -0.3710   20.6320 C   0  0  0  0  0  0  0  0  0  0  0  0
    6.0440    0.2310   19.2650 C   0  0  0  0  0  0  0  0  0  0  0  0
    6.2790   -4.8400   20.6130 C   0  0  0  0  0  0  0  0  0  0  0  0
    4.9400   -6.3660   22.0640 C   0  0  1  0  0  0  0  0  0  0  0  0
    4.6050   -6.6510   23.5220 C   0  0  0  0  0  0  0  0  0  0  0  0
    3.7340   -5.7070   22.7250 C   0  0  0  0  0  0  0  0  0  0  0  0
    8.5440   -4.7380   21.2280 O   0  0  0  0  0  0  0  0  0  0  0  0
    5.4340   -4.7710   19.7150 O   0  0  0  0  0  0  0  0  0  0  0  0
  3  2  2  0
  4  1  1  0
  5  1  1  0
  6  4  2  0
  7  1  2  0
  7  2  1  0
  8  5  2  0
  8  3  1  0
  9  4  1  0
 10  9  1  1
 11 10  1  0
 12 11  2  0
 13 10  1  0
 13 14  1  1
 15 14  1  0
 16 15  1  0
 17 16  1  0
 18 13  1  0
 18 17  1  0
 19 11  1  0
 20 19  1  6
 21 20  1  0
 21 22  1  1
 23 21  1  0
 24 21  1  0
 25 20  1  0
 26 25  2  0
 28 25  1  0
 29 27  2  0
 30 28  1  0
 30 27  1  1
 31 30  1  0
 32 31  1  0
 31 33  1  6
 34 33  1  0
 35 28  1  0
 32 35  1  6
 36 34  1  0
 36 32  1  0
 38 27  1  0
 39 38  1  0
 40 39  1  0
 39 41  1  6
 42 41  1  0
 43 42  1  0
 44 37  1  0
 44 40  1  0
 45 37  1  1
 46 45  1  0
 47 46  1  0
 47 45  1  0
 40 48  1  1
 49 44  2  0
M  END
