
     RDKit          3D

 21 23  0  0  0  0  0  0  0  0999 V2000
   13.7950   -1.7250   21.1590 Cl  0  0  0  0  0  0  0  0  0  0  0  0
   12.6740   -0.8990   22.2020 C   0  0  0  0  0  0  0  0  0  0  0  0
   13.1520    0.0240   23.1080 C   0  0  0  0  0  0  0  0  0  0  0  0
   12.2720    0.6140   23.9980 C   0  0  0  0  0  0  0  0  0  0  0  0
   11.3350   -1.2280   22.1370 C   0  0  0  0  0  0  0  0  0  0  0  0
   10.4280   -0.6100   22.9960 C   0  0  0  0  0  0  0  0  0  0  0  0
   10.9220    0.2980   23.9380 C   0  0  0  0  0  0  0  0  0  0  0  0
   10.1200    0.9140   24.8710 O   0  0  0  0  0  0  0  0  0  0  0  0
    8.7220    1.0250   24.5230 C   0  0  0  0  0  0  0  0  0  0  0  0
    8.1490   -0.2870   24.0510 C   0  0  0  0  0  0  0  0  0  0  0  0
    8.9340   -0.8000   22.8300 C   0  0  1  0  0  0  0  0  0  0  0  0
    8.4970   -0.0390   21.5780 C   0  0  0  0  0  0  0  0  0  0  0  0
    9.1300    0.9180   21.1470 O   0  0  0  0  0  0  0  0  0  0  0  0
    7.3630   -0.4960   21.0080 N   0  0  0  0  0  0  0  0  0  0  0  0
    6.6950    0.0990   19.9110 C   0  0  0  0  0  0  0  0  0  0  0  0
    5.5410    0.8680   20.1450 C   0  0  0  0  0  0  0  0  0  0  0  0
    5.0340    1.1420   21.5390 C   0  0  0  0  0  0  0  0  0  0  0  0
    7.1540   -0.0380   18.5990 C   0  0  0  0  0  0  0  0  0  0  0  0
    6.5430    0.5110   17.5460 N   0  0  0  0  0  0  0  0  0  0  0  0
    5.4360    1.2260   17.7810 C   0  0  0  0  0  0  0  0  0  0  0  0
    4.9100    1.4280   19.0400 C   0  0  0  0  0  0  0  0  0  0  0  0
  2  1  1  0
  3  2  2  0
  4  3  1  0
  5  2  1  0
  6  5  2  0
  7  6  1  0
  7  4  2  0
  8  7  1  0
  9  8  1  0
 10  9  1  0
 11 10  1  0
 11  6  1  0
 11 12  1  6
 13 12  2  0
 14 12  1  0
 15 14  1  0
 16 15  2  0
 17 16  1  0
 18 15  1  0
 19 18  2  0
 20 19  1  0
 21 20  2  0
 21 16  1  0
M  END
