
     RDKit          3D

 25 27  0  0  0  0  0  0  0  0999 V2000
    9.6140    0.7940   23.9980 C   0  0  0  0  0  0  0  0  0  0  0  0
    8.7680    0.9020   23.1250 O   0  0  0  0  0  0  0  0  0  0  0  0
   10.4300   -0.1820   23.9600 N   0  0  0  0  0  0  0  0  0  0  0  0
   11.3110   -0.4820   25.0960 C   0  0  0  0  0  0  0  0  0  0  0  0
   12.2580   -1.5660   24.6030 C   0  0  2  0  0  0  0  0  0  0  0  0
   13.6940   -1.0580   24.5250 C   0  0  0  0  0  0  0  0  0  0  0  0
   13.8960   -0.5970   23.0890 C   0  0  0  0  0  0  0  0  0  0  0  0
   12.9880   -1.5200   22.2880 C   0  0  0  0  0  0  0  0  0  0  0  0
   11.8220   -1.9110   23.1900 C   0  0  2  0  0  0  0  0  0  0  0  0
   10.5210   -1.1560   22.8550 C   0  0  1  0  0  0  0  0  0  0  0  0
    9.2550   -2.0060   22.7740 C   0  0  0  0  0  0  0  0  0  0  0  0
    8.9620   -2.7440   23.7250 O   0  0  0  0  0  0  0  0  0  0  0  0
    8.5150   -1.8910   21.7320 N   0  0  0  0  0  0  0  0  0  0  0  0
    7.2170   -2.5910   21.5430 C   0  0  1  0  0  0  0  0  0  0  0  0
    6.2440   -1.5430   20.8990 C   0  0  0  0  0  0  0  0  0  0  0  0
    6.8840   -0.5810   19.8680 C   0  0  0  0  0  0  0  0  0  0  0  0
    5.8630    0.2340   19.0470 C   0  0  0  0  0  0  0  0  0  0  0  0
    7.4270   -3.9000   20.7480 C   0  0  1  0  0  0  0  0  0  0  0  0
    8.3430   -4.7740   21.4670 O   0  0  0  0  0  0  0  0  0  0  0  0
    6.0990   -4.6030   20.5100 C   0  0  0  0  0  0  0  0  0  0  0  0
    5.4800   -4.4100   19.5030 O   0  0  0  0  0  0  0  0  0  0  0  0
    5.5850   -5.4190   21.3210 N   0  0  0  0  0  0  0  0  0  0  0  0
    6.0440   -5.8420   22.6250 C   0  0  2  0  0  0  0  0  0  0  0  0
    4.9530   -6.7600   23.1860 C   0  0  0  0  0  0  0  0  0  0  0  0
    5.1370   -5.3550   23.7470 C   0  0  0  0  0  0  0  0  0  0  0  0
  2  1  2  0
  3  1  1  0
  4  3  1  0
  5  4  1  6
  6  5  1  0
  7  6  1  0
  8  7  1  0
  9  8  1  6
  9  5  1  0
 10  3  1  0
 10  9  1  0
 10 11  1  1
 12 11  2  0
 13 11  1  0
 14 13  1  0
 14 15  1  6
 16 15  1  0
 17 16  1  0
 18 14  1  0
 18 19  1  1
 20 18  1  0
 21 20  2  0
 22 20  1  0
 23 22  1  6
 24 23  1  0
 25 24  1  0
 25 23  1  0
M  END
