
     RDKit          3D

 49 53  0  0  0  0  0  0  0  0999 V2000
   12.6520    8.1870   26.0530 C   0  0  0  0  0  0  0  0  0  0  0  0
   12.9580    9.7760   27.6820 C   0  0  0  0  0  0  0  0  0  0  0  0
   13.4440    8.7890   28.5210 C   0  0  0  0  0  0  0  0  0  0  0  0
   12.1880    7.7260   24.6500 C   0  0  0  0  0  0  0  0  0  0  0  0
   13.1080    7.2000   26.9010 C   0  0  0  0  0  0  0  0  0  0  0  0
   11.9630    8.4520   23.7380 O   0  0  0  0  0  0  0  0  0  0  0  0
   12.5570    9.4500   26.4500 N   0  0  0  0  0  0  0  0  0  0  0  0
   13.5130    7.5220   28.1190 N   0  0  0  0  0  0  0  0  0  0  0  0
   12.0580    6.2840   24.5200 N   0  0  0  0  0  0  0  0  0  0  0  0
   11.5690    5.6980   23.2950 C   0  0  2  0  0  0  0  0  0  0  0  0
   10.8240    4.4870   23.8560 C   0  0  0  0  0  0  0  0  0  0  0  0
   10.9800    4.0380   24.9650 O   0  0  0  0  0  0  0  0  0  0  0  0
   12.6400    5.2120   22.2930 C   0  0  1  0  0  0  0  0  0  0  0  0
   13.5170    6.3870   21.7610 C   0  0  0  0  0  0  0  0  0  0  0  0
   14.5370    5.8250   20.7520 C   0  0  0  0  0  0  0  0  0  0  0  0
   15.4500    4.7830   21.4450 C   0  0  0  0  0  0  0  0  0  0  0  0
   14.6680    3.6120   22.0820 C   0  0  0  0  0  0  0  0  0  0  0  0
   13.4560    4.0880   22.9420 C   0  0  0  0  0  0  0  0  0  0  0  0
    9.8450    3.8590   22.9660 N   0  0  0  0  0  0  0  0  0  0  0  0
    9.1740    2.7020   23.5010 C   0  0  1  0  0  0  0  0  0  0  0  0
    7.6530    2.9100   23.5620 C   0  0  2  0  0  0  0  0  0  0  0  0
    7.0890    3.4140   22.2110 C   0  0  0  0  0  0  0  0  0  0  0  0
    7.3570    3.9840   24.6250 C   0  0  0  0  0  0  0  0  0  0  0  0
    6.9840    1.5660   23.9840 C   0  0  0  0  0  0  0  0  0  0  0  0
    9.5150    1.5070   22.6300 C   0  0  0  0  0  0  0  0  0  0  0  0
    9.2540    1.4250   21.4540 O   0  0  0  0  0  0  0  0  0  0  0  0
    9.3190   -1.5990   22.4970 C   0  0  0  0  0  0  0  0  0  0  0  0
   10.2150    0.3780   23.2860 N   0  0  0  0  0  0  0  0  0  0  0  0
    8.7440   -1.9080   23.4950 O   0  0  0  0  0  0  0  0  0  0  0  0
   10.5560   -0.8270   22.5810 C   0  0  1  0  0  0  0  0  0  0  0  0
   11.7160   -1.5280   23.4030 C   0  0  2  0  0  0  0  0  0  0  0  0
   11.7930   -0.6850   24.6890 C   0  0  2  0  0  0  0  0  0  0  0  0
   13.1380   -1.3660   22.4940 C   0  0  0  0  0  0  0  0  0  0  0  0
   13.8160   -0.3200   23.0100 C   0  0  0  0  0  0  0  0  0  0  0  0
   10.6220    0.2510   24.5430 C   0  0  0  0  0  0  0  0  0  0  0  0
   13.3120   -0.1220   24.4270 C   0  0  0  0  0  0  0  0  0  0  0  0
    6.0800   -5.6270   21.8510 N   0  0  0  0  0  0  0  0  0  0  0  0
    8.7440   -1.9460   21.2070 N   0  0  0  0  0  0  0  0  0  0  0  0
    7.4760   -2.6720   21.1940 C   0  0  2  0  0  0  0  0  0  0  0  0
    7.5930   -4.0780   20.6010 C   0  0  2  0  0  0  0  0  0  0  0  0
    6.5710   -1.7710   20.3460 C   0  0  0  0  0  0  0  0  0  0  0  0
    5.8840   -0.7870   21.3310 C   0  0  0  0  0  0  0  0  0  0  0  0
    5.2460    0.3500   20.4880 C   0  0  0  0  0  0  0  0  0  0  0  0
    6.2500   -4.8120   20.6630 C   0  0  0  0  0  0  0  0  0  0  0  0
    4.8830   -6.4060   22.1240 C   0  0  1  0  0  0  0  0  0  0  0  0
    4.5580   -6.5820   23.6130 C   0  0  0  0  0  0  0  0  0  0  0  0
    3.8120   -5.5370   22.7790 C   0  0  0  0  0  0  0  0  0  0  0  0
    8.5330   -4.7900   21.3440 O   0  0  0  0  0  0  0  0  0  0  0  0
    5.4210   -4.7390   19.7930 O   0  0  0  0  0  0  0  0  0  0  0  0
  3  2  2  0
  4  1  1  0
  5  1  1  0
  6  4  2  0
  7  1  2  0
  7  2  1  0
  8  5  2  0
  8  3  1  0
  9  4  1  0
 10  9  1  1
 11 10  1  0
 12 11  2  0
 13 10  1  0
 13 14  1  1
 15 14  1  0
 16 15  1  0
 17 16  1  0
 18 17  1  0
 18 13  1  0
 19 11  1  0
 20 19  1  6
 21 20  1  0
 21 22  1  6
 23 21  1  0
 24 21  1  0
 25 20  1  0
 26 25  2  0
 28 25  1  0
 29 27  2  0
 30 28  1  0
 30 27  1  1
 31 30  1  0
 32 31  1  0
 31 33  1  6
 34 33  1  0
 35 28  1  0
 32 35  1  6
 36 34  1  0
 36 32  1  0
 38 27  1  0
 39 38  1  0
 40 39  1  0
 39 41  1  6
 42 41  1  0
 43 42  1  0
 44 37  1  0
 44 40  1  0
 45 37  1  1
 46 45  1  0
 47 46  1  0
 47 45  1  0
 40 48  1  1
 49 44  2  0
M  END
