
     RDKit          3D

 49 52  0  0  0  0  0  0  0  0999 V2000
   11.8090    4.3550   22.7130 C   0  0  0  0  0  0  0  0  0  0  0  0
   12.2140    4.0210   23.8400 O   0  0  0  0  0  0  0  0  0  0  0  0
   12.5130    5.1430   21.8700 N   0  0  0  0  0  0  0  0  0  0  0  0
   13.8280    5.7560   22.1430 C   0  0  1  0  0  0  0  0  0  0  0  0
   14.8870    4.6660   22.3810 C   0  0  0  0  0  0  0  0  0  0  0  0
   14.2650    6.6170   20.9470 C   0  0  0  0  0  0  0  0  0  0  0  0
   15.1810    3.8490   21.1320 C   0  0  0  0  0  0  0  0  0  0  0  0
   14.5640    5.7900   19.7050 C   0  0  0  0  0  0  0  0  0  0  0  0
   15.6220    4.7460   19.9930 C   0  0  0  0  0  0  0  0  0  0  0  0
   13.7210    6.6400   23.4100 C   0  0  0  0  0  0  0  0  0  0  0  0
   12.5860    8.0100   23.3830 S   0  0  2  0  0  0  0  0  0  0  0  0
   11.3570    7.5890   22.7790 O   0  0  0  0  0  0  0  0  0  0  0  0
   13.2630    9.1640   22.8720 O   0  0  0  0  0  0  0  0  0  0  0  0
   12.2020    8.3870   25.1000 C   0  0  2  0  0  0  0  0  0  0  0  0
   13.4410    8.9850   25.7590 C   0  0  0  0  0  0  0  0  0  0  0  0
   11.8230    7.0920   25.8080 C   0  0  0  0  0  0  0  0  0  0  0  0
   11.0500    9.3800   25.1580 C   0  0  0  0  0  0  0  0  0  0  0  0
   10.6140    3.9370   22.2420 N   0  0  0  0  0  0  0  0  0  0  0  0
    9.8410    2.9360   22.9580 C   0  0  1  0  0  0  0  0  0  0  0  0
    8.4010    3.3860   23.2610 C   0  0  1  0  0  0  0  0  0  0  0  0
    8.4200    4.5770   24.2240 C   0  0  0  0  0  0  0  0  0  0  0  0
    7.6680    3.8080   21.9850 C   0  0  0  0  0  0  0  0  0  0  0  0
    7.6250    2.2430   23.9220 C   0  0  0  0  0  0  0  0  0  0  0  0
    9.9260    1.6120   22.2000 C   0  0  0  0  0  0  0  0  0  0  0  0
    9.4330    1.4710   21.0840 O   0  0  0  0  0  0  0  0  0  0  0  0
   10.5920    0.6080   22.7920 N   0  0  0  0  0  0  0  0  0  0  0  0
   11.2300    0.6670   24.1140 C   0  0  0  0  0  0  0  0  0  0  0  0
   10.7150   -0.6890   22.1270 C   0  0  1  0  0  0  0  0  0  0  0  0
   11.7730   -1.4220   22.9310 C   0  0  2  0  0  0  0  0  0  0  0  0
   12.0180   -0.6240   24.1980 C   0  0  1  0  0  0  0  0  0  0  0  0
   13.1370   -0.8350   23.2160 C   0  0  1  0  0  0  0  0  0  0  0  0
   14.2490   -1.7850   23.6080 C   0  0  0  0  0  0  0  0  0  0  0  0
   13.6260    0.3000   22.3410 C   0  0  0  0  0  0  0  0  0  0  0  0
    9.3940   -1.4510   22.1810 C   0  0  0  0  0  0  0  0  0  0  0  0
    8.8710   -1.7300   23.2580 O   0  0  0  0  0  0  0  0  0  0  0  0
    8.8520   -1.7580   21.0020 N   0  0  0  0  0  0  0  0  0  0  0  0
    7.4940   -2.3100   20.8880 C   0  0  1  0  0  0  0  0  0  0  0  0
    6.5810   -1.3090   20.1750 C   0  0  0  0  0  0  0  0  0  0  0  0
    6.4710    0.0200   20.8860 C   0  0  0  0  0  0  0  0  0  0  0  0
    5.7620    1.0640   20.0610 C   0  0  0  0  0  0  0  0  0  0  0  0
    4.3690    0.6730   19.6300 C   0  0  0  0  0  0  0  0  0  0  0  0
    8.5230   -4.5050   20.6920 O   0  0  0  0  0  0  0  0  0  0  0  0
    7.4920   -3.6730   20.1700 C   0  0  1  0  0  0  0  0  0  0  0  0
    5.3600   -4.3510   19.3640 O   0  0  0  0  0  0  0  0  0  0  0  0
    5.8830   -4.8930   21.5000 N   0  0  0  0  0  0  0  0  0  0  0  0
    4.6370   -5.5620   21.7580 C   0  0  2  0  0  0  0  0  0  0  0  0
    3.6740   -4.8960   22.6770 C   0  0  0  0  0  0  0  0  0  0  0  0
    4.4120   -6.1070   23.1240 C   0  0  0  0  0  0  0  0  0  0  0  0
    6.1490   -4.3380   20.3140 C   0  0  0  0  0  0  0  0  0  0  0  0
  2  1  2  0
  3  1  1  0
  4  3  1  0
  5  4  1  0
  6  4  1  0
  7  5  1  0
  8  6  1  0
  9  7  1  0
  9  8  1  0
  4 10  1  1
 11 10  1  1
 12 11  2  0
 13 11  2  0
 14 11  1  0
 14 15  1  1
 16 14  1  0
 17 14  1  0
 18  1  1  0
 19 18  1  6
 20 19  1  0
 20 21  1  1
 22 20  1  0
 23 20  1  0
 24 19  1  0
 25 24  2  0
 26 24  1  0
 27 26  1  0
 28 26  1  0
 29 28  1  6
 30 29  1  0
 30 27  1  6
 31 30  1  0
 31 29  1  0
 31 32  1  1
 33 31  1  0
 28 34  1  1
 35 34  2  0
 36 34  1  0
 37 36  1  0
 37 38  1  6
 39 38  1  0
 40 39  1  0
 41 40  1  0
 43 42  1  1
 43 37  1  0
 46 45  1  1
 47 46  1  0
 48 46  1  0
 48 47  1  0
 49 44  2  0
 49 45  1  0
 49 43  1  0
M  END
